*version 9.2 651810919
u 151
HB? 7
? 9
@libraries
@analysis
.TRAN 1 0 0 0
+0 0ns
+1 100ns
.OPT 0 0 0 0 0 0 0 0 0 0 0 0 0 0 0 0 0
@targets
@attributes
@translators
a 0 u 13 0 0 0 hln 100 PCBOARDS=PCB
a 0 u 13 0 0 0 hln 100 PSPICE=PSPICE
a 0 u 13 0 0 0 hln 100 XILINX=XILINX
@setup
unconnectedPins 1
connectViaLabel 0
connectViaLocalLabels 0
NoStim4ExtIFPortsWarnings 1
AutoGenStim4ExtIFPorts 1
@index
pageloc 1 0 9763 
@status
n 0 122:08:05:15:22:42;1662380562 e 
s 0 122:08:05:15:22:44;1662380564 e 
c 122:08:05:15:24:12;1662380652
*page 1 0 3220 2020 iD
@ports
@parts
block 16 blocksym16 1090 200 d
a 0 x 0:13 0 0 0 hln 100 PKGREF=B071
a 0 xp 9 0 0 0 hln 100 REFDES=B071
*symbol blocksym16
d 
@type p
@attributes
a 0 sp 9 0 0 0 hln 100 REFDES=HB?
a 0 s 0 0 0 0 hln 100 PART=
@views
a 0 u 13 0 0 0 hln 100 DEFAULT=B0_BLOCK.sch
@pins
p 2 38 54 hrb 100 out l 40 50 u
a 0 s 0:13 0 0 0 hln 100 ERC=o
a 0 s 0:13 0 0 0 hln 100 FLOAT=n
a 0 s 1 0 41 48 hln 100 PIN=
@graphics 40 100 0 0 10
r 0 0 0 40 100
*end blocksym
block 15 blocksym15 1280 200 d
a 0 x 0:13 0 0 0 hln 100 PKGREF=B182
a 0 xp 9 0 0 0 hln 100 REFDES=B182
*symbol blocksym15
d 
@type p
@attributes
a 0 sp 9 0 0 0 hln 100 REFDES=HB?
a 0 s 0 0 0 0 hln 100 PART=
@views
a 0 u 13 0 0 0 hln 100 DEFAULT=B1_BLOCK.sch
@pins
p 2 38 54 hrb 100 out l 40 50 u
a 0 s 0:13 0 0 0 hln 100 ERC=o
a 0 s 0:13 0 0 0 hln 100 FLOAT=n
a 0 s 1 0 41 48 hln 100 PIN=
@graphics 40 100 0 0 10
r 0 0 0 40 100
*end blocksym
block 25 blocksym3 1100 380 d
a 0 x 0:13 0 0 0 hln 100 PKGREF=AND24
a 0 xp 9 0 0 0 hln 100 REFDES=AND24
*symbol blocksym25
d 
@type p
@attributes
a 0 sp 9 0 0 0 hln 100 REFDES=HB?
a 0 s 0 0 0 0 hln 100 PART=
@views
a 0 u 13 0 0 0 hln 100 DEFAULT=AND_BLOCK.sch
@pins
p 2 2 35 hlb 100 X l 0 30 h
a 0 s 0:13 0 0 0 hln 100 ERC=i
a 0 s 0:13 0 0 0 hln 100 FLOAT=n
a 0 s 1 0 1 28 hln 100 PIN=
p 2 2 65 hlb 100 Y l 0 60 h
a 0 s 0:13 0 0 0 hln 100 ERC=i
a 0 s 0:13 0 0 0 hln 100 FLOAT=n
a 0 s 1 0 1 58 hln 100 PIN=
p 2 38 55 hrb 100 Carry l 40 50 u
a 0 s 0:13 0 0 0 hln 100 ERC=o
a 0 s 0:13 0 0 0 hln 100 FLOAT=n
a 0 s 1 0 41 48 hln 100 PIN=
@graphics 40 100 0 0 10
r 0 0 0 40 100
*end blocksym
block 42 blocksym15 900 390 d
a 0 x 0:13 0 0 0 hln 100 PKGREF=B165
a 0 xp 9 0 0 0 hln 100 REFDES=B165
*symbol blocksym42
d 
@type p
@attributes
a 0 sp 9 0 0 0 hln 100 REFDES=HB?
a 0 s 0 0 0 0 hln 100 PART=
@views
a 0 u 13 0 0 0 hln 100 DEFAULT=B1_BLOCK.sch
@pins
p 2 38 54 hrb 100 out l 40 50 u
a 0 s 0:13 0 0 0 hln 100 ERC=o
a 0 s 0:13 0 0 0 hln 100 FLOAT=n
a 0 s 1 0 41 48 hln 100 PIN=
@graphics 40 100 0 0 10
r 0 0 0 40 100
*end blocksym
block 41 blocksym16 710 390 d
a 0 x 0:13 0 0 0 hln 100 PKGREF=B056
a 0 xp 9 0 0 0 hln 100 REFDES=B056
*symbol blocksym41
d 
@type p
@attributes
a 0 sp 9 0 0 0 hln 100 REFDES=HB?
a 0 s 0 0 0 0 hln 100 PART=
@views
a 0 u 13 0 0 0 hln 100 DEFAULT=B0_BLOCK.sch
@pins
p 2 38 54 hrb 100 out l 40 50 u
a 0 s 0:13 0 0 0 hln 100 ERC=o
a 0 s 0:13 0 0 0 hln 100 FLOAT=n
a 0 s 1 0 41 48 hln 100 PIN=
@graphics 40 100 0 0 10
r 0 0 0 40 100
*end blocksym
block 14 blocksym14 470 210 h
a 0 x 0:13 0 0 0 hln 100 PKGREF=A0117
a 0 xp 9 0 0 0 hln 100 REFDES=A0117
*symbol blocksym14
d 
@type p
@attributes
a 0 sp 9 0 0 0 hln 100 REFDES=HB?
a 0 s 0 0 0 0 hln 100 PART=
@views
a 0 u 13 0 0 0 hln 100 DEFAULT=A0_BLOCK.sch
@pins
p 2 38 54 hrb 100 out l 40 50 u
a 0 s 0:13 0 0 0 hln 100 ERC=o
a 0 s 0:13 0 0 0 hln 100 FLOAT=n
a 0 s 1 0 41 48 hln 100 PIN=
@graphics 40 100 0 0 10
r 0 0 0 40 100
*end blocksym
block 13 blocksym13 410 490 h
a 0 x 0:13 0 0 0 hln 100 PKGREF=A1118
a 0 xp 9 0 0 0 hln 100 REFDES=A1118
*symbol blocksym13
d 
@type p
@attributes
a 0 sp 9 0 0 0 hln 100 REFDES=HB?
a 0 s 0 0 0 0 hln 100 PART=
@views
a 0 u 13 0 0 0 hln 100 DEFAULT=A1_BLOCK.sch
@pins
p 2 38 54 hrb 100 out l 40 50 u
a 0 s 0:13 0 0 0 hln 100 ERC=o
a 0 s 0:13 0 0 0 hln 100 FLOAT=n
a 0 s 1 0 41 48 hln 100 PIN=
@graphics 40 100 0 0 10
r 0 0 0 40 100
*end blocksym
block 26 blocksym3 900 560 d
a 0 x 0:13 0 0 0 hln 100 PKGREF=AND309
a 0 xp 9 0 0 0 hln 100 REFDES=AND309
*symbol blocksym26
d 
@type p
@attributes
a 0 sp 9 0 0 0 hln 100 REFDES=HB?
a 0 s 0 0 0 0 hln 100 PART=
@views
a 0 u 13 0 0 0 hln 100 DEFAULT=AND_BLOCK.sch
@pins
p 2 2 35 hlb 100 X l 0 30 h
a 0 s 0:13 0 0 0 hln 100 ERC=i
a 0 s 0:13 0 0 0 hln 100 FLOAT=n
a 0 s 1 0 1 28 hln 100 PIN=
p 2 2 65 hlb 100 Y l 0 60 h
a 0 s 0:13 0 0 0 hln 100 ERC=i
a 0 s 0:13 0 0 0 hln 100 FLOAT=n
a 0 s 1 0 1 58 hln 100 PIN=
p 2 38 55 hrb 100 Carry l 40 50 u
a 0 s 0:13 0 0 0 hln 100 ERC=o
a 0 s 0:13 0 0 0 hln 100 FLOAT=n
a 0 s 1 0 41 48 hln 100 PIN=
@graphics 40 100 0 0 10
r 0 0 0 40 100
*end blocksym
block 27 blocksym3 670 560 d
a 0 x 0:13 0 0 0 hln 100 PKGREF=AND49
a 0 xp 9 0 0 0 hln 100 REFDES=AND49
*symbol blocksym27
d 
@type p
@attributes
a 0 sp 9 0 0 0 hln 100 REFDES=HB?
a 0 s 0 0 0 0 hln 100 PART=
@views
a 0 u 13 0 0 0 hln 100 DEFAULT=AND_BLOCK.sch
@pins
p 2 2 35 hlb 100 X l 0 30 h
a 0 s 0:13 0 0 0 hln 100 ERC=i
a 0 s 0:13 0 0 0 hln 100 FLOAT=n
a 0 s 1 0 1 28 hln 100 PIN=
p 2 2 65 hlb 100 Y l 0 60 h
a 0 s 0:13 0 0 0 hln 100 ERC=i
a 0 s 0:13 0 0 0 hln 100 FLOAT=n
a 0 s 1 0 1 58 hln 100 PIN=
p 2 38 55 hrb 100 Carry l 40 50 u
a 0 s 0:13 0 0 0 hln 100 ERC=o
a 0 s 0:13 0 0 0 hln 100 FLOAT=n
a 0 s 1 0 41 48 hln 100 PIN=
@graphics 40 100 0 0 10
r 0 0 0 40 100
*end blocksym
block 11 blocksym3 1320 380 d
a 0 x 0:13 0 0 0 hln 100 PKGREF=AND13
a 0 xp 9 0 0 0 hln 100 REFDES=AND13
*symbol blocksym11
d 
@type p
@attributes
a 0 sp 9 0 0 0 hln 100 REFDES=HB?
a 0 s 0 0 0 0 hln 100 PART=
@views
a 0 u 13 0 0 0 hln 100 DEFAULT=AND_BLOCK.sch
@pins
p 2 2 35 hlb 100 X l 0 30 h
a 0 s 0:13 0 0 0 hln 100 ERC=i
a 0 s 0:13 0 0 0 hln 100 FLOAT=n
a 0 s 1 0 1 28 hln 100 PIN=
p 2 2 65 hlb 100 Y l 0 60 h
a 0 s 0:13 0 0 0 hln 100 ERC=i
a 0 s 0:13 0 0 0 hln 100 FLOAT=n
a 0 s 1 0 1 58 hln 100 PIN=
p 2 38 55 hrb 100 Carry l 40 50 u
a 0 s 0:13 0 0 0 hln 100 ERC=o
a 0 s 0:13 0 0 0 hln 100 FLOAT=n
a 0 s 1 0 41 48 hln 100 PIN=
@graphics 40 100 0 0 10
r 0 0 0 40 100
*end blocksym
block 28 blocksym2 860 770 d
a 0 x 0:13 0 0 0 hln 100 PKGREF=HA13
a 0 xp 9 0 0 0 hln 100 REFDES=HA13
*symbol blocksym28
d 
@type p
@attributes
a 0 sp 9 0 0 0 hln 100 REFDES=HB?
a 0 s 0 0 0 0 hln 100 PART=
@views
a 0 u 13 0 0 0 hln 100 DEFAULT=HA_BLOCK.sch
@pins
p 2 2 24 hlb 100 X l 0 20 h
a 0 s 0:13 0 0 0 hln 100 ERC=i
a 0 s 0:13 0 0 0 hln 100 FLOAT=n
a 0 s 1 0 1 18 hln 100 PIN=
p 2 2 64 hlb 100 Y l 0 60 h
a 0 s 0:13 0 0 0 hln 100 ERC=i
a 0 s 0:13 0 0 0 hln 100 FLOAT=n
a 0 s 1 0 1 58 hln 100 PIN=
p 2 38 34 hrb 100 S l 40 30 u
a 0 s 0:13 0 0 0 hln 100 ERC=o
a 0 s 0:13 0 0 0 hln 100 FLOAT=n
a 0 s 1 0 41 28 hln 100 PIN=
p 2 38 64 hrb 100 C l 40 60 u
a 0 s 0:13 0 0 0 hln 100 ERC=o
a 0 s 0:13 0 0 0 hln 100 FLOAT=n
a 0 s 1 0 41 58 hln 100 PIN=
@graphics 40 100 0 0 10
r 0 0 0 40 100
*end blocksym
block 2 blocksym2 1090 760 d
a 0 x 0:13 0 0 0 hln 100 PKGREF=HA232
a 0 xp 9 0 0 0 hln 100 REFDES=HA232
*symbol blocksym2
d 
@type p
@attributes
a 0 sp 9 0 0 0 hln 100 REFDES=HB?
a 0 s 0 0 0 0 hln 100 PART=
@views
a 0 u 13 0 0 0 hln 100 DEFAULT=HA_BLOCK.sch
@pins
p 2 2 24 hlb 100 X l 0 20 h
a 0 s 0:13 0 0 0 hln 100 ERC=i
a 0 s 0:13 0 0 0 hln 100 FLOAT=n
a 0 s 1 0 1 18 hln 100 PIN=
p 2 2 64 hlb 100 Y l 0 60 h
a 0 s 0:13 0 0 0 hln 100 ERC=i
a 0 s 0:13 0 0 0 hln 100 FLOAT=n
a 0 s 1 0 1 58 hln 100 PIN=
p 2 38 34 hrb 100 S l 40 30 u
a 0 s 0:13 0 0 0 hln 100 ERC=o
a 0 s 0:13 0 0 0 hln 100 FLOAT=n
a 0 s 1 0 41 28 hln 100 PIN=
p 2 38 64 hrb 100 C l 40 60 u
a 0 s 0:13 0 0 0 hln 100 ERC=o
a 0 s 0:13 0 0 0 hln 100 FLOAT=n
a 0 s 1 0 41 58 hln 100 PIN=
@graphics 40 100 0 0 10
r 0 0 0 40 100
*end blocksym
part 1 titleblk 3220 2020 h
a 1 s 13 0 350 10 hcn 100 PAGESIZE=D
a 1 s 13 0 180 60 hcn 100 PAGETITLE=
a 1 s 13 0 300 95 hrn 100 PAGENO=1
a 1 s 13 0 340 95 hrn 100 PAGECOUNT=1
@conn
w 40
a 0 up 0:33 0 0 0 hln 100 V=
s 850 430 850 510 74
a 0 up 33 0 852 470 hlt 100 V=
s 850 510 870 510 76
s 870 510 870 560 78
w 38
a 0 up 0:33 0 0 0 hln 100 V=
s 660 430 660 540 80
a 0 up 33 0 662 485 hlt 100 V=
s 660 540 640 540 82
s 640 540 640 560 84
w 10
a 0 up 0:33 0 0 0 hln 100 V=
s 1030 800 1030 830 99
s 1030 830 890 830 101
a 0 up 33 0 960 829 hct 100 V=
s 890 830 890 730 103
s 890 730 840 730 105
s 840 730 840 770 107
w 110
a 0 up 0:33 0 0 0 hln 100 V=
s 620 600 620 710 109
s 620 710 800 710 111
a 0 up 33 0 710 709 hct 100 V=
s 800 710 800 770 113
w 122
a 0 up 0:33 0 0 0 hln 100 V=
s 1060 430 1060 700 121
a 0 up 33 0 1062 565 hlt 100 V=
s 1060 700 1070 700 123
s 1070 700 1070 760 125
s 1060 430 1050 430 127
s 1050 430 1050 420 129
w 116
a 0 up 0:33 0 0 0 hln 100 V=
s 850 700 1030 700 117
a 0 up 33 0 940 699 hct 100 V=
s 1030 700 1030 760 119
s 850 700 850 600 131
w 20
a 0 up 0:33 0 0 0 hln 100 V=
s 1230 260 1290 260 49
s 1230 260 1230 240 53
s 1290 260 1290 380 146
a 0 up 33 0 1292 320 hlt 100 V=
w 18
a 0 up 0:33 0 0 0 hln 100 V=
s 1040 330 1070 330 57
s 1070 330 1070 380 59
s 1040 240 1040 330 144
a 0 up 33 0 1042 285 hlt 100 V=
w 22
a 0 up 0:33 0 0 0 hln 100 V=
s 1020 260 1020 300 63
s 1020 370 1040 370 65
s 1040 370 1040 380 67
s 1020 300 1020 370 71
s 1020 300 1260 300 69
s 1260 300 1260 380 72
s 510 260 1020 260 140
a 0 up 33 0 765 259 hct 100 V=
w 24
a 0 up 0:33 0 0 0 hln 100 V=
s 550 540 550 510 88
s 550 510 610 510 90
s 840 510 840 560 92
s 610 510 840 510 98
a 0 up 33 0 725 509 hct 100 V=
s 610 560 610 510 96
s 550 540 450 540 142
@junction
j 510 260
+ p 14 out
+ w 22
j 1040 240
+ p 16 out
+ w 18
j 1230 240
+ p 15 out
+ w 20
j 450 540
+ p 13 out
+ w 24
j 1030 800
+ p 2 C
+ w 10
j 1290 380
+ p 11 X
+ w 20
j 1070 380
+ p 25 X
+ w 18
j 1040 380
+ p 25 Y
+ w 22
j 1020 300
+ w 22
+ w 22
j 1260 380
+ p 11 Y
+ w 22
j 850 430
+ p 42 out
+ w 40
j 660 430
+ p 41 out
+ w 38
j 870 560
+ p 26 X
+ w 40
j 640 560
+ p 27 X
+ w 38
j 610 510
+ w 24
+ w 24
j 840 770
+ p 28 X
+ w 10
j 620 600
+ p 27 Carry
+ w 110
j 800 770
+ p 28 Y
+ w 110
j 1030 760
+ p 2 Y
+ w 116
j 1070 760
+ p 2 X
+ w 122
j 1050 420
+ p 25 Carry
+ w 122
j 850 600
+ p 26 Carry
+ w 116
j 840 560
+ p 26 Y
+ w 24
j 610 560
+ p 27 Y
+ w 24
@attributes
a 0 s 0:13 0 0 0 hln 100 PAGETITLE=
a 0 s 0:13 0 0 0 hln 100 PAGENO=1
a 0 s 0:13 0 0 0 hln 100 PAGESIZE=D
a 0 s 0:13 0 0 0 hln 100 PAGECOUNT=1
@graphics
t 133 t 6 1260 440 1280 460 0 2
P0
t 134 t 6 1050 820 1070 840 0 2
P1
t 135 t 6 820 830 840 850 0 2
P2
t 136 t 6 780 830 800 850 0 2
P3
